Circuit: * EESchema Netlist Version 1.1 (Spice format) creation date: 11/2/2014 4:13:19 PM

Shield1: all pins shorted together -- ignoring.
